examples/test_perturbation_outputs/pert_min_loss/pglib_opf_case162_ieee_dtc.m
%% MATPOWER Case Format : Version 2
function mpc = pglib_opf_case162_ieee_dtc
mpc.version = '2';

%%-----  Power Flow Data  -----%%
%% system MVA base
mpc.baseMVA = 100.0;
%% bus data
%    bus_i    type    Pd    Qd    Gs    Bs    area    Vm    Va    baseKV    zone    Vmax    Vmin
mpc.bus = [
	1	1	0.0	0.0	0.0	-100.0	1	1.0	0.0	345.0	9	1.06	0.94				
	2	1	0.0	0.0	0.0	0.0	1	1.0	0.0	345.0	9	1.06	0.94				
	3	1	370.0	96.9	0.0	0.0	1	1.0	0.0	161.0	12	1.06	0.94				
	4	1	0.0	0.0	0.0	0.0	1	1.0	0.0	345.0	3	1.06	0.94				
	5	1	0.0	0.0	0.0	-50.0	1	1.0	0.0	345.0	8	1.06	0.94				
	6	2	0.0	0.0	0.0	0.0	1	1.0	0.0	22.0	9	1.06	0.94				
	7	1	0.0	0.0	0.0	0.0	1	1.0	0.0	345.0	9	1.06	0.94				
	8	1	398.0	0.0	0.0	0.0	1	1.0	0.0	115.0	12	1.06	0.94				
	9	1	0.0	0.0	0.0	0.0	1	1.0	0.0	345.0	8	1.06	0.94				
	10	1	225.99999999999997	0.0	0.0	0.0	1	1.0	0.0	230.0	12	1.06	0.94				
	11	1	0.0	0.0	0.0	0.0	1	1.0	0.0	230.0	10	1.06	0.94				
	12	1	193.0	0.0	0.0	0.0	1	1.0	0.0	115.0	12	1.06	0.94				
	13	1	204.0	0.0	0.0	0.0	1	1.0	0.0	345.0	12	1.06	0.94				
	14	1	381.0	0.0	0.0	0.0	1	1.0	0.0	161.0	12	1.06	0.94				
	15	1	-80.0	0.0	0.0	0.0	1	1.0	0.0	230.0	12	1.06	0.94				
	16	1	-54.2	0.0	0.0	0.0	1	1.0	0.0	161.0	12	1.06	0.94				
	17	1	-116.5	0.0	0.0	0.0	1	1.0	0.0	161.0	12	1.06	0.94				
	18	1	34.4	11.67	0.0	0.0	1	1.0	0.0	161.0	6	1.06	0.94				
	19	1	64.4	0.0	0.0	0.0	1	1.0	0.0	161.0	12	1.06	0.94				
	20	1	37.9	12.5	0.0	0.0	1	1.0	0.0	69.0	10	1.06	0.94				
	21	1	-69.8	0.0	0.0	0.0	1	1.0	0.0	161.0	12	1.06	0.94				
	22	1	17.39	5.27	0.0	0.0	1	1.0	0.0	161.0	6	1.06	0.94				
	23	1	63.5	0.0	0.0	0.0	1	1.0	0.0	161.0	12	1.06	0.94				
	24	1	0.0	0.0	0.0	0.0	1	1.0	0.0	161.0	6	1.06	0.94				
	25	1	0.0	0.0	0.0	-50.0	1	1.0	0.0	345.0	6	1.06	0.94				
	26	1	0.0	0.0	0.0	-50.0	1	1.0	0.0	345.0	1	1.06	0.94				
	27	1	324.0	57.9	0.0	0.0	1	1.0	0.0	345.0	12	1.06	0.94				
	28	1	38.47	13.170000000000002	0.0	0.0	1	1.0	0.0	161.0	6	1.06	0.94				
	29	1	28.309999999999995	9.03	0.0	0.0	1	1.0	0.0	161.0	6	1.06	0.94				
	30	1	101.2	32.52	0.0	15.0	1	1.0	0.0	161.0	6	1.06	0.94				
	31	1	72.5	0.0	0.0	0.0	1	1.0	0.0	161.0	12	1.06	0.94				
	32	1	52.7	15.06	0.0	20.0	1	1.0	0.0	161.0	6	1.06	0.94				
	33	1	45.17	15.06	0.0	20.0	1	1.0	0.0	161.0	6	1.06	0.94				
	34	1	14.180000000000001	5.25	0.0	3.2	1	1.0	0.0	161.0	1	1.06	0.94				
	35	1	54.48	14.63	0.0	5.0	1	1.0	0.0	161.0	1	1.06	0.94				
	36	1	31.96	8.68	0.0	3.0	1	1.0	0.0	161.0	2	1.06	0.94				
	37	1	0.0	0.0	0.0	0.0	1	1.0	0.0	345.0	11	1.06	0.94				
	38	1	14.760000000000002	4.08	0.0	1.5	1	1.0	0.0	161.0	2	1.06	0.94				
	39	1	0.0	0.0	0.0	0.0	1	1.0	0.0	345.0	6	1.06	0.94				
	40	1	52.88	17.6	0.0	0.0	1	1.0	0.0	161.0	1	1.06	0.94				
	41	1	39.2	12.8	0.0	0.0	1	1.0	0.0	161.0	1	1.06	0.94				
	42	1	0.0	0.0	0.0	0.0	1	1.0	0.0	345.0	2	1.06	0.94				
	43	1	41.5	0.0	0.0	0.0	1	1.0	0.0	161.0	12	1.06	0.94				
	44	1	16.32	3.71	0.0	0.0	1	1.0	0.0	161.0	2	1.06	0.94				
	45	1	20.02	5.41	0.0	1.9	1	1.0	0.0	161.0	2	1.06	0.94				
	46	1	65.31	22.3	0.0	26.200000000000003	1	1.0	0.0	161.0	10	1.06	0.94				
	47	1	4.82	1.56	0.0	0.0	1	1.0	0.0	161.0	2	1.06	0.94				
	48	1	33.76	22.86	0.0	0.0	1	1.0	0.0	161.0	10	1.06	0.94				
	49	1	6.819999999999999	1.78	0.0	0.0	1	1.0	0.0	161.0	2	1.06	0.94				
	50	1	99.7	0.0	0.0	0.0	1	1.0	0.0	161.0	12	1.06	0.94				
	51	1	0.0	0.0	0.0	0.0	1	1.0	0.0	161.0	3	1.06	0.94				
	52	1	218.2	42.8	0.0	0.0	1	1.0	0.0	161.0	3	1.06	0.94				
	53	1	0.0	0.0	0.0	0.0	1	1.0	0.0	161.0	10	1.06	0.94				
	54	1	70.34	29.57	0.0	0.0	1	1.0	0.0	161.0	10	1.06	0.94				
	55	1	0.0	0.0	0.0	0.0	1	1.0	0.0	161.0	1	1.06	0.94				
	56	1	25.290000000000003	7.26	0.0	3.2	1	1.0	0.0	161.0	7	1.06	0.94				
	57	1	48.48	15.61	0.0	0.0	1	1.0	0.0	161.0	1	1.06	0.94				
	58	1	0.0	0.0	0.0	0.0	1	1.0	0.0	230.0	10	1.06	0.94				
	59	1	84.43	27.05	0.0	0.0	1	1.0	0.0	230.0	10	1.06	0.94				
	60	1	244.0	0.0	0.0	0.0	1	1.0	0.0	115.0	12	1.06	0.94				
	61	1	0.0	0.0	0.0	0.0	1	1.0	0.0	230.0	10	1.06	0.94				
	62	1	-865.6	0.0	0.0	0.0	1	1.0	0.0	230.0	12	1.06	0.94				
	63	1	59.099999999999994	0.0	0.0	0.0	1	1.0	0.0	230.0	12	1.06	0.94				
	64	1	0.0	0.0	0.0	0.0	1	1.0	0.0	345.0	10	1.06	0.94				
	65	1	-26.3	0.0	0.0	0.0	1	1.0	0.0	345.0	12	1.06	0.94				
	66	1	0.0	0.0	0.0	-50.0	1	1.0	0.0	345.0	10	1.06	0.94				
	67	1	22.54	7.03	0.0	6.0	1	1.0	0.0	161.0	7	1.06	0.94				
	68	1	40.42	12.68	0.0	12.0	1	1.0	0.0	161.0	7	1.06	0.94				
	69	1	0.0	0.0	0.0	0.0	1	1.0	0.0	161.0	1	1.06	0.94				
	70	1	0.0	0.0	0.0	0.0	1	1.0	0.0	161.0	1	1.06	0.94				
	71	1	29.87	11.93	0.0	12.0	1	1.0	0.0	161.0	1	1.06	0.94				
	72	1	426.99999999999994	0.0	0.0	0.0	1	1.0	0.0	161.0	12	1.06	0.94				
	73	2	0.0	0.0	0.0	0.0	1	1.0	0.0	20.0	1	1.06	0.94				
	74	1	0.0	0.0	0.0	0.0	1	1.0	0.0	345.0	5	1.06	0.94				
	75	1	0.0	0.0	0.0	-50.0	1	1.0	0.0	345.0	8	1.06	0.94				
	76	2	0.0	0.0	0.0	0.0	1	1.0	0.0	24.0	1	1.06	0.94				
	77	1	26.41	8.78	0.0	4.7	1	1.0	0.0	161.0	1	1.06	0.94				
	78	1	79.12	0.0	0.0	0.0	1	1.0	0.0	161.0	5	1.06	0.94				
	79	1	0.0	0.0	0.0	0.0	1	1.0	0.0	161.0	5	1.06	0.94				
	80	1	15.76	5.25	0.0	2.8	1	1.0	0.0	161.0	1	1.06	0.94				
	81	1	50.88	16.8	0.0	22.1	1	1.0	0.0	69.0	1	1.06	0.94				
	82	1	62.28	20.26	0.0	10.4	1	1.0	0.0	161.0	1	1.06	0.94				
	83	1	0.0	0.0	0.0	0.0	1	1.0	0.0	161.0	1	1.06	0.94				
	84	1	37.9	9.49	0.0	2.6	1	1.0	0.0	161.0	2	1.06	0.94				
	85	1	40.52	11.26	0.0	12.0	1	1.0	0.0	161.0	1	1.06	0.94				
	86	1	50.73	13.350000000000001	0.0	12.0	1	1.0	0.0	161.0	2	1.06	0.94				
	87	1	16.91	4.23	0.0	0.0	1	1.0	0.0	115.0	2	1.06	0.94				
	88	1	60.6	4.44	0.0	0.0	1	1.0	0.0	69.0	4	1.06	0.94				
	89	1	0.0	0.0	0.0	0.0	1	1.0	0.0	115.0	2	1.06	0.94				
	90	1	50.21	16.76	0.0	10.0	1	1.0	0.0	115.0	2	1.06	0.94				
	91	1	51.239999999999995	12.83	0.0	0.0	1	1.0	0.0	161.0	2	1.06	0.94				
	92	1	36.12	9.05	0.0	0.0	1	1.0	0.0	161.0	2	1.06	0.94				
	93	1	103.8	34.56	0.0	0.0	1	1.0	0.0	161.0	2	1.06	0.94				
	94	1	164.0	6.49	0.0	0.0	1	1.0	0.0	161.0	5	1.06	0.94				
	95	1	117.19999999999999	39.01	0.0	0.0	1	1.0	0.0	115.0	2	1.06	0.94				
	96	1	119.19999999999999	0.0	0.0	0.0	1	1.0	0.0	115.0	2	1.06	0.94				
	97	1	22.84	5.71	0.0	0.0	1	1.0	0.0	115.0	2	1.06	0.94				
	98	1	151.1	50.35000000000001	0.0	0.0	1	1.0	0.0	115.0	2	1.06	0.94				
	99	2	0.0	0.0	0.0	0.0	1	1.0	0.0	18.0	2	1.06	0.94				
	100	1	23.21	6.9	0.0	3.0	1	1.0	0.0	115.0	2	1.06	0.94				
	101	2	0.0	0.0	0.0	0.0	1	1.0	0.0	14.0	2	1.06	0.94				
	102	1	16.54	4.08	0.0	0.0	1	1.0	0.0	161.0	2	1.06	0.94				
	103	1	322.0	0.0	0.0	0.0	1	1.0	0.0	161.0	12	1.06	0.94				
	104	1	31.52	10.46	0.0	5.6	1	1.0	0.0	115.0	2	1.06	0.94				
	105	1	24.84	6.23	0.0	1.7000000000000002	1	1.0	0.0	115.0	2	1.06	0.94				
	106	1	0.0	0.0	0.0	0.0	1	1.0	0.0	161.0	4	1.06	0.94				
	107	1	35.41	5.41	0.0	0.0	1	1.0	0.0	161.0	4	1.06	0.94				
	108	3	0.0	0.0	0.0	0.0	1	1.0	0.0	22.0	2	1.06	0.94				
	109	1	0.0	0.0	0.0	0.0	1	1.0	0.0	345.0	5	1.06	0.94				
	110	1	0.0	0.0	0.0	0.0	1	1.0	0.0	161.0	3	1.06	0.94				
	111	1	65.41	16.72	0.0	0.0	1	1.0	0.0	161.0	3	1.06	0.94				
	112	1	0.0	0.0	0.0	-50.0	1	1.0	0.0	345.0	3	1.06	0.94				
	113	1	32.7	0.0	0.0	0.0	1	1.0	0.0	161.0	12	1.06	0.94				
	114	2	0.0	0.0	0.0	0.0	1	1.0	0.0	14.0	3	1.06	0.94				
	115	1	17.32	3.34	0.0	0.0	1	1.0	0.0	161.0	3	1.06	0.94				
	116	1	56.08	11.2	0.0	0.0	1	1.0	0.0	161.0	3	1.06	0.94				
	117	1	101.9	20.06	0.0	0.0	1	1.0	0.0	161.0	3	1.06	0.94				
	118	2	0.0	0.0	0.0	0.0	1	1.0	0.0	14.0	3	1.06	0.94				
	119	1	0.0	0.0	0.0	0.0	1	1.0	0.0	345.0	3	1.06	0.94				
	120	1	0.0	0.0	0.0	0.0	1	1.0	0.0	345.0	8	1.06	0.94				
	121	2	0.0	0.0	0.0	0.0	1	1.0	0.0	24.0	3	1.06	0.94				
	122	1	47.28	9.36	0.0	0.0	1	1.0	0.0	161.0	3	1.06	0.94				
	123	1	165.0	0.0	0.0	0.0	1	1.0	0.0	161.0	12	1.06	0.94				
	124	1	-571.0	90.9	0.0	0.0	1	1.0	0.0	345.0	12	1.06	0.94				
	125	2	2000.0	0.0	0.0	0.0	1	1.0	0.0	345.0	12	1.06	0.94				
	126	1	-467.0	0.0	0.0	0.0	1	1.0	0.0	345.0	12	1.06	0.94				
	127	1	-52.6	0.0	0.0	0.0	1	1.0	0.0	345.0	12	1.06	0.94				
	128	1	0.0	0.0	0.0	0.0	1	1.0	0.0	345.0	8	1.06	0.94				
	129	1	0.0	0.0	0.0	0.0	1	1.0	0.0	345.0	8	1.06	0.94				
	130	2	0.0	0.0	0.0	0.0	1	1.0	0.0	22.0	8	1.06	0.94				
	131	2	0.0	0.0	0.0	0.0	1	1.0	0.0	18.0	8	1.06	0.94				
	132	1	159.0	0.0	0.0	0.0	1	1.0	0.0	161.0	12	1.06	0.94				
	133	1	30.099999999999998	6.02	0.0	0.0	1	1.0	0.0	69.0	3	1.06	0.94				
	134	1	17.46	3.34	0.0	0.0	1	1.0	0.0	161.0	3	1.06	0.94				
	135	1	20.06	4.01	0.0	0.0	1	1.0	0.0	69.0	3	1.06	0.94				
	136	1	20.06	4.01	0.0	0.0	1	1.0	0.0	69.0	3	1.06	0.94				
	137	1	20.06	4.01	0.0	0.0	1	1.0	0.0	69.0	3	1.06	0.94				
	138	1	0.0	0.0	0.0	0.0	1	1.0	0.0	69.0	3	1.06	0.94				
	139	1	10.1	2.01	0.0	0.0	1	1.0	0.0	69.0	3	1.06	0.94				
	140	1	13.58	2.68	0.0	0.0	1	1.0	0.0	69.0	3	1.06	0.94				
	141	1	0.0	0.0	0.0	0.0	1	1.0	0.0	161.0	3	1.06	0.94				
	142	1	27.089999999999996	5.35	0.0	0.0	1	1.0	0.0	69.0	3	1.06	0.94				
	143	1	21.07	4.01	0.0	0.0	1	1.0	0.0	69.0	3	1.06	0.94				
	144	1	12.37	2.01	0.0	0.0	1	1.0	0.0	69.0	3	1.06	0.94				
	145	1	10.83	2.21	0.0	0.0	1	1.0	0.0	69.0	3	1.06	0.94				
	146	1	21.33	4.01	0.0	0.0	1	1.0	0.0	69.0	3	1.06	0.94				
	147	1	216.4	42.8	0.0	0.0	1	1.0	0.0	161.0	3	1.06	0.94				
	148	1	120.0	24.0	0.0	0.0	1	1.0	0.0	69.0	3	1.06	0.94				
	149	1	0.0	0.0	0.0	0.0	1	1.0	0.0	161.0	1	1.06	0.94				
	150	1	4.8	1.6	0.0	0.0	1	1.0	0.0	161.0	1	1.06	0.94				
	151	1	24.0	8.0	0.0	0.0	1	1.0	0.0	161.0	1	1.06	0.94				
	152	1	6.0	0.0	0.0	0.0	1	1.0	0.0	161.0	12	1.06	0.94				
	153	1	4.0	1.6	0.0	0.0	1	1.0	0.0	69.0	1	1.06	0.94				
	154	1	28.000000000000004	9.6	0.0	6.0	1	1.0	0.0	69.0	1	1.06	0.94				
	155	1	12.0	4.0	0.0	0.0	1	1.0	0.0	69.0	1	1.06	0.94				
	156	1	8.0	2.4	0.0	0.0	1	1.0	0.0	69.0	1	1.06	0.94				
	157	1	32.0	10.4	0.0	0.0	1	1.0	0.0	69.0	1	1.06	0.94				
	158	1	16.0	5.6	0.0	3.0	1	1.0	0.0	69.0	1	1.06	0.94				
	159	1	8.0	2.4	0.0	0.0	1	1.0	0.0	69.0	1	1.06	0.94				
	160	1	14.400000000000002	4.8	0.0	3.0	1	1.0	0.0	69.0	1	1.06	0.94				
	161	1	32.0	10.4	0.0	0.0	1	1.0	0.0	161.0	1	1.06	0.94				
	162	1	20.0	6.4	0.0	0.0	1	1.0	0.0	161.0	1	1.06	0.94				
];

%% generator data
%    bus    Pg    Qg    Qmax    Qmin    Vg    mBase    status    Pmax    Pmin    Pc1    Pc2    Qc1min    Qc1max    Qc2min    Qc2max    ramp_agc    ramp_10    ramp_30    ramp_q    apf
mpc.gen = [
	6	573.5	100.0	400.0	-200.0	1.0	100.0	1	1147.0	0.0															
	73	225.5	77.0	225.99999999999997	-72.0	1.0	100.0	1	451.0	0.0															
	76	563.5	197.0	564.0	-170.0	1.0	100.0	1	1127.0	0.0															
	99	183.0	7.5	75.6	-60.6	1.0	100.0	1	366.0	0.0															
	101	55.00000000000001	7.1	38.6	-24.4	1.0	100.0	1	110.00000000000001	0.0															
	108	559.5	0.0	560.0	-560.0	1.0	100.0	1	1119.0	0.0															
	114	154.0	4.0	33.0	-25.0	1.0	100.0	1	308.0	0.0															
	118	227.5	28.000000000000004	100.0	-44.0	1.0	100.0	1	455.0	0.0															
	121	350.0	65.0	250.0	-120.0	1.0	100.0	1	700.0	0.0															
	125	1263.0	82.0	1263.0	-1099.0	1.0	100.0	1	2526.0	0.0															
	130	796.5	72.0	288.0	-144.0	1.0	100.0	1	1593.0	0.0															
	131	565.0	27.500000000000004	320.0	-265.0	1.0	100.0	1	1130.0	0.0															
];

%% branch data
%    f_bus    t_bus    r    x    b    rateA    rateB    rateC    ratio    angle    status    angmin    angmax
mpc.branch = [
	1	2	0.0034719513071282556	0.03184262012470168	0.6086977089374793	613.0	613.0	613.0	0	0	1	-29.999999999999996	29.999999999999996								
	1	3	0.0033992256298788176	0.03259274970959825	0.7620983285833658	894.9999999999999	894.9999999999999	894.9999999999999	1.0	0.0	1	-29.999999999999996	29.999999999999996								
	1	4	0.006441126844986185	0.06249870811676365	0.9571535905166523	470.0	470.0	470.0	0	0	1	-29.999999999999996	29.999999999999996								
	1	5	0.0011001465497636144	0.011901584134470598	0.10892240097298085	663.0	663.0	663.0	0	0	1	-29.999999999999996	29.999999999999996								
	1	6	1.1650631293147378e-5	0.01329943400077884	0.0014199172943330264	900.0	2206.0	2206.0	1.0519	0.0	1	-29.999999999999996	29.999999999999996								
	2	7	0.001405045236903752	0.012545046202448368	0.28221419926395575	605.0	605.0	605.0	0	0	1	-29.999999999999996	29.999999999999996								
	2	13	0.004587291896287456	0.041584683922088216	0.7279949607317495	610.0	610.0	610.0	0	0	1	-29.999999999999996	29.999999999999996								
	3	14	0.23649756556621587	1.013951421623384	0.0014575527987383348	28.999999999999996	28.999999999999996	28.999999999999996	0	0	1	-29.999999999999996	29.999999999999996								
	3	50	0.03884768968493998	0.1696773475435706	0.023221484775631997	169.0	169.0	169.0	0	0	1	-29.999999999999996	29.999999999999996								
	3	103	0.21797594665811415	1.8060179753148295	0.0014210272477226582	17.0	17.0	17.0	0	0	1	-29.999999999999996	29.999999999999996								
	3	123	0.26475191268042475	1.5499408697047572	0.0014192778109033775	18.0	18.0	18.0	0	0	1	-29.999999999999996	29.999999999999996								
	3	124	0.030672094486205913	0.6816956463714386	0.0465015761915623	46.0	46.0	46.0	1.0	0.0	1	-29.999999999999996	29.999999999999996								
	3	125	0.009375073450506224	0.12712290034501686	0.001420224899920647	257.0	257.0	257.0	1.0	0.0	1	-29.999999999999996	29.999999999999996								
	4	112	0.005937968167416147	0.05716513904082509	0.9057269283119936	514.0	514.0	514.0	0	0	1	-29.999999999999996	29.999999999999996								
	4	115	2.2519867857323558e-5	0.018490182294284792	0.12645621754268374	500.0	1586.0	1586.0	1.0	0.0	1	-29.999999999999996	29.999999999999996								
	4	119	0.001399080629680373	0.011892183762649862	0.1653335835356936	591.0	591.0	591.0	0	0	1	-29.999999999999996	29.999999999999996								
	5	120	0.002196599882662225	0.02236537789143067	0.36503952389471467	644.0	644.0	644.0	0	0	1	-29.999999999999996	29.999999999999996								
	5	129	0.002185254374905315	0.0266203664273404	0.32639753071673216	702.0	702.0	702.0	0	0	1	-29.999999999999996	29.999999999999996								
	5	131	1.0628901785752838e-5	0.01270289303253985	0.10455399483868971	710.0	2310.0	2310.0	1.0249	0.0	1	-29.999999999999996	29.999999999999996								
	7	8	0.00039200446181944667	0.018522173605021588	0.0014193387749946603	672.0	1552.0	1552.0	0.9751	0.0	1	-29.999999999999996	29.999999999999996								
	7	9	0.0017021909944487249	0.016921765792635105	0.2990356970041036	637.0	637.0	637.0	0	0	1	-29.999999999999996	29.999999999999996								
	8	10	0.38199160910856905	0.8904635038686258	0.03227003689679359	26.0	26.0	26.0	1.0	0.0	1	-29.999999999999996	29.999999999999996								
	8	12	0.010580409409664216	0.057293911189999665	0.001418790486953956	159.0	159.0	159.0	0	0	1	-29.999999999999996	29.999999999999996								
	8	13	0.1273698318438413	0.4783092061869319	0.04442104395194842	60.0	60.0	60.0	1.0	0.0	1	-29.999999999999996	29.999999999999996								
	8	14	0.044579685609729684	0.37282929099837697	0.011906717479664918	74.0	74.0	74.0	1.0	0.0	1	-29.999999999999996	29.999999999999996								
	8	15	0.3009116183459022	1.0427550381522064	0.02491983361459717	17.0	17.0	17.0	1.0	0.0	1	-29.999999999999996	29.999999999999996								
	8	132	0.029182457235276925	0.3334885243149272	0.001421680458397744	102.0	102.0	102.0	1.0	0.0	1	-29.999999999999996	29.999999999999996								
	9	75	0.0013017775145073654	0.015020498047408189	0.2359677198592257	684.0	684.0	684.0	0	0	1	-29.999999999999996	29.999999999999996								
	10	11	0.005016188767723071	0.03639201702405895	0.08661955644172431	366.0	366.0	366.0	0	0	1	-29.999999999999996	29.999999999999996								
	10	13	0.12538025312883308	0.6002744935945883	0.0845914084855838	47.0	47.0	47.0	1.0	0.0	1	-29.999999999999996	29.999999999999996								
	10	15	0.13673004162876323	0.7544912362369185	0.0014193917824369057	42.0	42.0	42.0	0	0	1	-29.999999999999996	29.999999999999996								
	10	60	0.3437921156867886	1.669368061174276	0.0014210903880027175	24.0	24.0	24.0	1.0	0.0	1	-29.999999999999996	29.999999999999996								
	11	15	0.028494240169289062	0.17927335689622675	0.3809680560728938	162.0	162.0	162.0	0	0	1	-29.999999999999996	29.999999999999996								
	11	46	0.014799303897046845	0.12768067911944034	0.05734197831629531	238.0	238.0	238.0	1.0	0.0	1	-29.999999999999996	29.999999999999996								
	11	58	0.015836429675067286	0.09967850249639915	0.08218738608066789	271.0	271.0	271.0	0	0	1	-29.999999999999996	29.999999999999996								
	11	59	0.007169267014933607	0.04755921602667918	0.21187517125211303	350.0	350.0	350.0	0	0	1	-29.999999999999996	29.999999999999996								
	12	2	0.0008448714090122392	0.03981445549011534	0.001419856038880406	336.0	778.0	778.0	1.0252	0.0	1	-29.999999999999996	29.999999999999996								
	12	13	0.10773857607632362	0.32561231292537407	0.0014202395528369557	89.0	89.0	89.0	1.0	0.0	1	-29.999999999999996	29.999999999999996								
	12	14	0.1714414299456773	0.6881916055901512	0.0014262918926875592	45.0	45.0	45.0	1.0	0.0	1	-29.999999999999996	29.999999999999996								
	12	132	0.39762840603807514	1.3978912058890307	0.033830547732718826	18.0	18.0	18.0	1.0	0.0	1	-29.999999999999996	29.999999999999996								
	13	15	0.044507814854377985	0.3265074108251774	0.0014210434299932013	91.0	91.0	91.0	1.0	0.0	1	-29.999999999999996	29.999999999999996								
	13	62	0.009785434641252996	0.12196268137644098	0.18406111838914074	240.0	240.0	240.0	1.0	0.0	1	-29.999999999999996	29.999999999999996								
	14	72	0.011075948235170453	0.08570920264384778	0.03677267429852667	264.0	264.0	264.0	0	0	1	-29.999999999999996	29.999999999999996								
	14	113	0.006172376654259647	0.03742615582893652	0.0014190489172359263	235.0	235.0	235.0	0	0	1	-29.999999999999996	29.999999999999996								
	14	132	0.0057335534350979505	0.037620157657986326	0.11828450300710339	244.0	244.0	244.0	0	0	1	-29.999999999999996	29.999999999999996								
	15	58	0.011599903452523066	0.07383550218923124	0.21685003992196783	344.0	344.0	344.0	0	0	1	-29.999999999999996	29.999999999999996								
	15	60	0.33313995385545137	1.4274562744300907	0.0014189421862523032	18.0	18.0	18.0	1.0	0.0	1	-29.999999999999996	29.999999999999996								
	15	62	0.00841426139410446	0.05890121270827833	0.0014210315543187121	359.0	359.0	359.0	0	0	1	-29.999999999999996	29.999999999999996								
	15	63	0.21797625405888704	1.8060181047854724	0.011882003275445793	21.0	21.0	21.0	0	0	1	-29.999999999999996	29.999999999999996								
	16	17	0.6105013752424631	1.4587072925793485	0.0966475014241775	19.0	19.0	19.0	0	0	1	-29.999999999999996	29.999999999999996								
	16	18	0.029302396355762598	0.10556638774996546	0.05422173695911804	184.0	184.0	184.0	0	0	1	-29.999999999999996	29.999999999999996								
	16	27	0.12334539388133653	0.6952411854329025	0.0014185968608406711	33.0	33.0	33.0	1.0	0.0	1	-29.999999999999996	29.999999999999996								
	16	126	0.12873159502709108	0.6271882771026068	0.029874643888431696	56.00000000000001	56.00000000000001	56.00000000000001	1.0	0.0	1	-29.999999999999996	29.999999999999996								
	16	127	0.09597713139382967	0.5285822109215504	0.0014224690402573263	55.00000000000001	55.00000000000001	55.00000000000001	1.0	0.0	1	-29.999999999999996	29.999999999999996								
	17	18	0.02140483362362626	0.10181625984511175	0.0707708939924797	209.0	209.0	209.0	0	0	1	-29.999999999999996	29.999999999999996								
	17	19	0.2184381075012647	0.7266503253185165	0.001418766207360869	37.0	37.0	37.0	0	0	1	-29.999999999999996	29.999999999999996								
	17	21	0.05115086870670905	0.28948158296713	0.0014197977922104342	109.00000000000001	109.00000000000001	109.00000000000001	0	0	1	-29.999999999999996	29.999999999999996								
	17	127	0.02885414177547605	0.26513159762661426	0.0014195615318256189	111.00000000000001	111.00000000000001	111.00000000000001	1.0	0.0	1	-29.999999999999996	29.999999999999996								
	18	30	0.019716176213505576	0.10363470148550027	0.06362724716944429	220.00000000000003	220.00000000000003	220.00000000000003	0	0	1	-29.999999999999996	29.999999999999996								
	18	32	0.02390217016045656	0.12463199005724235	0.10825748910709869	219.0	219.0	219.0	0	0	1	-29.999999999999996	29.999999999999996								
	18	37	0.00013722165480616378	0.04564234599954818	0.001419180588475536	225.0	644.0	644.0	1.1193	0.0	1	-29.999999999999996	29.999999999999996								
	19	21	0.25957713918927633	1.2776560375380077	0.06681827093763502	16.0	16.0	16.0	0	0	1	-29.999999999999996	29.999999999999996								
	19	38	0.024497167422277515	0.12812332804117296	0.17102542021975642	219.0	219.0	219.0	0	0	1	-29.999999999999996	29.999999999999996								
	19	43	0.06580374375015895	0.2806393786449737	0.044627154807013625	112.00000000000001	112.00000000000001	112.00000000000001	0	0	1	-29.999999999999996	29.999999999999996								
	19	127	0.103505213517656	0.6565320141081895	0.0014193640447954104	43.0	43.0	43.0	1.0	0.0	1	-29.999999999999996	29.999999999999996								
	20	53	0.0008549019841246582	0.1139211947533941	0.1453095056149035	75.0	258.0	258.0	1.0	0.0	1	-29.999999999999996	29.999999999999996								
	20	157	0.01128984780983516	0.02787493151125499	0.0014195742066058319	44.0	66.0	66.0	0	0	1	-29.999999999999996	29.999999999999996								
	21	22	0.031966845203916884	0.1669434339415774	0.09757635324160518	177.0	177.0	177.0	0	0	1	-29.999999999999996	29.999999999999996								
	21	127	0.11833206993986015	1.335089855783256	0.001418852634450943	46.0	46.0	46.0	1.0	0.0	1	-29.999999999999996	29.999999999999996								
	22	38	0.014022958310035877	0.05408856266791804	0.0014202036725801264	190.0	190.0	190.0	0	0	1	-29.999999999999996	29.999999999999996								
	22	39	0.000160380351839854	0.049343719444803424	0.10335891204493657	225.0	595.0	595.0	1.1081	0.0	1	-29.999999999999996	29.999999999999996								
	22	40	0.01878804401445022	0.07165471798105355	0.0014193142254696105	189.0	189.0	189.0	0	0	1	-29.999999999999996	29.999999999999996								
	22	41	0.01724182833928165	0.08520742790305882	0.0015570299591986638	213.0	213.0	213.0	0	0	1	-29.999999999999996	29.999999999999996								
	23	24	0.017575201975309145	0.051614436758610965	0.03315476914133796	167.0	167.0	167.0	0	0	1	-29.999999999999996	29.999999999999996								
	23	60	0.06594379322011998	0.30907322209633015	0.001418952058754323	93.0	93.0	93.0	1.0	0.0	1	-29.999999999999996	29.999999999999996								
	24	25	7.594020908003154e-5	0.03395419230109839	0.001419753440525823	225.0	863.0000000000001	863.0000000000001	1.0217	0.0	1	-29.999999999999996	29.999999999999996								
	24	28	0.02557649283986418	0.07446928009579469	0.05610726253175447	166.0	166.0	166.0	0	0	1	-29.999999999999996	29.999999999999996								
	24	45	0.013491328213675395	0.07139610369656474	0.0014185465183872807	220.00000000000003	220.00000000000003	220.00000000000003	0	0	1	-29.999999999999996	29.999999999999996								
	25	26	0.005873661201364053	0.0580332337435022	0.9121398505128312	501.0	501.0	501.0	0	0	1	-29.999999999999996	29.999999999999996								
	25	27	0.004423044760790132	0.0412144015019101	0.8610032415962369	618.0	618.0	618.0	0	0	1	-29.999999999999996	29.999999999999996								
	26	74	0.006482628698756082	0.0624575306952067	0.837138086986348	480.99999999999994	480.99999999999994	480.99999999999994	0	0	1	-29.999999999999996	29.999999999999996								
	26	75	0.002944533400628263	0.03160471639632153	0.5297525155763657	661.0	661.0	661.0	0	0	1	-29.999999999999996	29.999999999999996								
	26	76	4.431790307379369e-6	0.008202535793648338	0.16861752206928934	1250.0	3578.0	3578.0	1.04	0.0	1	-29.999999999999996	29.999999999999996								
	27	31	0.009513530806644332	0.11990160011938676	0.055970715486249906	229.99999999999997	229.99999999999997	229.99999999999997	1.0	0.0	1	-29.999999999999996	29.999999999999996								
	27	62	0.2179754932224868	1.806018421893731	0.037561777170705635	51.0	51.0	51.0	1.0	0.0	1	-29.999999999999996	29.999999999999996								
	27	65	0.008613297401109199	0.2266940191578783	0.1013969375998355	107.0	107.0	107.0	0	0	1	-29.999999999999996	29.999999999999996								
	27	125	0.21797545955958217	1.8060184426825252	0.0014192126482632577	18.0	18.0	18.0	0	0	1	-29.999999999999996	29.999999999999996								
	27	126	0.002128723310514392	0.02177110633308632	0.01928400859864215	646.0	646.0	646.0	0	0	1	-29.999999999999996	29.999999999999996								
	27	127	0.135027870859202	1.2872690746835587	0.001418986570142546	21.0	21.0	21.0	0	0	1	-29.999999999999996	29.999999999999996								
	28	29	0.024053714039220336	0.09671513111995213	0.056743233508920625	193.0	193.0	193.0	0	0	1	-29.999999999999996	29.999999999999996								
	29	30	0.03719284950853533	0.1468098726539045	0.14959453708451464	177.0	190.0	190.0	0	0	1	-29.999999999999996	29.999999999999996								
	29	31	0.02049929511032823	0.08289268133197525	0.025939612991298603	194.0	194.0	194.0	0	0	1	-29.999999999999996	29.999999999999996								
	30	32	0.024991058012466545	0.1008679038961526	0.0014198615218713835	194.0	194.0	194.0	0	0	1	-29.999999999999996	29.999999999999996								
	32	33	0.011232801119313152	0.04414311456864009	0.0014200131736652726	191.0	191.0	191.0	0	0	1	-29.999999999999996	29.999999999999996								
	33	34	0.028988967130438248	0.11802643700073258	0.044710730491815856	180.0	195.0	195.0	0	0	1	-29.999999999999996	29.999999999999996								
	33	35	0.021609114376149884	0.10704540922218685	0.001419056494868605	214.0	214.0	214.0	0	0	1	-29.999999999999996	29.999999999999996								
	33	36	0.010087335596412124	0.053007962071078	0.00141886253459171	220.00000000000003	220.00000000000003	220.00000000000003	0	0	1	-29.999999999999996	29.999999999999996								
	34	40	0.039160401677763086	0.14963871281707777	0.0014194627726267506	188.0	188.0	188.0	0	0	1	-29.999999999999996	29.999999999999996								
	34	77	0.02302527194240053	0.0877891933898491	0.0014246134569723342	189.0	189.0	189.0	0	0	1	-29.999999999999996	29.999999999999996								
	35	40	0.026842423958645896	0.1328241222388344	0.12080679370982292	179.0	213.0	213.0	0	0	1	-29.999999999999996	29.999999999999996								
	36	67	0.017087568286367386	0.08970899265200076	0.0014187383406531469	220.00000000000003	220.00000000000003	220.00000000000003	0	0	1	-29.999999999999996	29.999999999999996								
	37	39	0.0039010097926974146	0.0379104832152998	0.6448091446957545	630.0	630.0	630.0	0	0	1	-29.999999999999996	29.999999999999996								
	37	126	0.003958948704666481	0.03770843686962781	0.4772059041408854	624.0	624.0	624.0	0	0	1	-29.999999999999996	29.999999999999996								
	37	127	0.003985638649196637	0.040155498532326896	0.7067934368410075	641.0	641.0	641.0	0	0	1	-29.999999999999996	29.999999999999996								
	39	42	0.0020035219724545803	0.018632733287791015	0.4380429061304324	617.0	617.0	617.0	0	0	1	-29.999999999999996	29.999999999999996								
	40	81	0.01993846864316451	0.22928800889913178	0.04633655547057554	81.0	85.0	85.0	1.0	0.0	1	-29.999999999999996	29.999999999999996								
	40	82	0.003999832727070376	0.01899920526588991	0.0014192982978589056	209.0	209.0	209.0	0	0	1	-29.999999999999996	29.999999999999996								
	41	81	0.037776653813662416	0.37975499186853456	0.005337057977377025	79.0	79.0	79.0	1.0	0.0	1	-29.999999999999996	29.999999999999996								
	41	83	0.0052115632786565655	0.025656920517709743	0.04553625815935761	213.0	213.0	213.0	0	0	1	-29.999999999999996	29.999999999999996								
	41	84	0.005758995891497384	0.0585992319277709	0.08106638023296112	301.0	301.0	301.0	0	0	1	-29.999999999999996	29.999999999999996								
	42	109	0.0018808824237935623	0.01940279796355238	0.36985184806511767	648.0	648.0	648.0	0	0	1	-29.999999999999996	29.999999999999996								
	43	44	0.019208628023020414	0.0767323858441789	0.06592067721301147	193.0	193.0	193.0	0	0	1	-29.999999999999996	29.999999999999996								
	43	103	0.034305767873935446	0.1802098551275369	0.0014186214351967665	170.0	170.0	170.0	0	0	1	-29.999999999999996	29.999999999999996								
	43	124	0.0314575123503665	0.1895986363125108	0.001418712677567543	164.0	164.0	164.0	1.0	0.0	1	-29.999999999999996	29.999999999999996								
	43	125	0.1483571169470318	0.666277789622227	0.0014403673682553827	44.0	44.0	44.0	1.0	0.0	1	-29.999999999999996	29.999999999999996								
	44	102	0.012941687885230136	0.04977572483327112	0.17785116013176136	180.0	189.0	189.0	0	0	1	-29.999999999999996	29.999999999999996								
	44	103	0.012869907721280218	0.05168226371081722	0.0014222027569674891	180.0	193.0	193.0	0	0	1	-29.999999999999996	29.999999999999996								
	45	54	0.01081537297359673	0.057081246864932586	0.001419410271823546	220.00000000000003	220.00000000000003	220.00000000000003	0	0	1	-29.999999999999996	29.999999999999996								
	46	47	0.030779854541034886	0.13682438551542236	0.07682096202714726	177.0	202.99999999999997	202.99999999999997	0	0	1	-29.999999999999996	29.999999999999996								
	47	48	0.024535353503747106	0.10889385592975163	0.07128365435607727	177.0	202.99999999999997	202.99999999999997	0	0	1	-29.999999999999996	29.999999999999996								
	47	49	0.0030143619552660023	0.012057447882020835	0.1311945727928318	193.0	193.0	193.0	0	0	1	-29.999999999999996	29.999999999999996								
	48	50	0.0326460465527942	0.16128667442375888	0.10603932959489423	174.0	174.0	174.0	0	0	1	-29.999999999999996	29.999999999999996								
	48	51	0.04227157822867231	0.1308399321797329	0.03228744668071031	171.0	171.0	171.0	0	0	1	-29.999999999999996	29.999999999999996								
	48	52	0.05445885385907974	0.16942748096358934	0.027260345578075138	167.0	167.0	167.0	0	0	1	-29.999999999999996	29.999999999999996								
	49	87	0.013923439324440453	0.06762819153704958	0.0014221378468896083	423.00000000000006	423.00000000000006	423.00000000000006	1.0	0.0	1	-29.999999999999996	29.999999999999996								
	50	51	0.03027105405575526	0.0908131187123267	0.0434288587025428	168.0	168.0	168.0	0	0	1	-29.999999999999996	29.999999999999996								
	50	123	0.2537816166072263	1.1589767299611626	0.10273481677542633	16.0	16.0	16.0	0	0	1	-29.999999999999996	29.999999999999996								
	50	125	0.12630992181146264	0.5699084088513976	0.07297096496387279	48.0	48.0	48.0	1.0	0.0	1	-29.999999999999996	29.999999999999996								
	51	141	0.03204047942303916	0.09919750907957779	0.07740203988937672	171.0	171.0	171.0	0	0	1	-29.999999999999996	29.999999999999996								
	52	79	0.0537521846561196	0.18343595068383745	0.08324974817425167	133.0	133.0	133.0	0	0	1	-29.999999999999996	29.999999999999996								
	52	106	0.023216883832638684	0.07206366517511632	0.0014192363359144262	171.0	171.0	171.0	0	0	1	-29.999999999999996	29.999999999999996								
	52	116	0.005955586791201322	0.04833965026730213	0.0014188870343369922	270.0	270.0	270.0	0	0	1	-29.999999999999996	29.999999999999996								
	52	117	0.011659698189470628	0.04913022540877835	0.02149813983771299	198.0	198.0	198.0	0	0	1	-29.999999999999996	29.999999999999996								
	52	118	0.00017869816299747864	0.052085409634777015	0.04504744143690163	200.0	565.0	565.0	1.0429	0.0	1	-29.999999999999996	29.999999999999996								
	53	11	0.0005063472245782883	0.02025369915672013	0.04084297672582261	375.0	1467.0	1467.0	1.0	0.0	1	-29.999999999999996	29.999999999999996								
	53	54	0.026645233894934544	0.1899891606942514	0.13788779305947085	149.0	149.0	149.0	0	0	1	-29.999999999999996	29.999999999999996								
	53	55	0.0004997406692480719	0.0025986514693995925	0.001419070088668982	219.0	219.0	219.0	0	0	1	-29.999999999999996	29.999999999999996								
	54	56	0.017163386110048008	0.08976199303596685	0.15502460146111216	219.0	219.0	219.0	0	0	1	-29.999999999999996	29.999999999999996								
	54	57	0.02494482481727263	0.12342682812839505	0.055463548335474074	213.0	213.0	213.0	0	0	1	-29.999999999999996	29.999999999999996								
	55	57	0.047114223999894414	0.17977702053939104	0.04109913671949006	161.0	161.0	161.0	0	0	1	-29.999999999999996	29.999999999999996								
	55	149	0.015257450012753773	0.06691302160223195	0.0014219576076640486	202.0	202.0	202.0	0	0	1	-29.999999999999996	29.999999999999996								
	55	162	0.004008772528322266	0.018941448415537153	0.115826582423088	209.0	209.0	209.0	0	0	1	-29.999999999999996	29.999999999999996								
	56	67	0.017260930354331544	0.09077189488793105	0.0014310674583682696	220.00000000000003	220.00000000000003	220.00000000000003	0	0	1	-29.999999999999996	29.999999999999996								
	57	80	0.02720079788286782	0.10370302035233066	0.22769416415656138	180.0	189.0	189.0	0	0	1	-29.999999999999996	29.999999999999996								
	58	61	0.01331614907453768	0.10191830059119855	0.12871052217933415	276.0	286.0	286.0	0	0	1	-29.999999999999996	29.999999999999996								
	59	61	0.010585728568238858	0.07050593269211504	0.1732617978858906	351.0	351.0	351.0	0	0	1	-29.999999999999996	29.999999999999996								
	60	61	0.002776757156504715	0.0671509843136335	0.011710166348060946	100.0	449.0	449.0	1.0252	0.0	1	-29.999999999999996	29.999999999999996								
	60	61	0.0020014713852542867	0.03932743596497091	0.030457964422374983	200.0	746.0	746.0	1.0252	0.0	1	-29.999999999999996	29.999999999999996								
	60	62	0.3616711281158155	0.9795135354695681	0.11998480542977183	28.999999999999996	28.999999999999996	28.999999999999996	1.0	0.0	1	-29.999999999999996	29.999999999999996								
	60	65	0.10909360742910028	0.43414160534601637	0.0014190364783046793	69.0	69.0	69.0	1.0	0.0	1	-29.999999999999996	29.999999999999996								
	60	126	0.4420113924542971	1.7186471115799018	0.001470558647068097	16.0	16.0	16.0	1.0	0.0	1	-29.999999999999996	29.999999999999996								
	61	62	0.029949706960521915	0.2301210057152617	0.40601132043042276	128.0	128.0	128.0	0	0	1	-29.999999999999996	29.999999999999996								
	61	63	0.004346060664209288	0.04265188672770339	0.03860565794448139	345.0	422.0	422.0	0	0	1	-29.999999999999996	29.999999999999996								
	62	63	0.01700231283808099	0.183104545592465	0.021685476543810384	172.0	172.0	172.0	0	0	1	-29.999999999999996	29.999999999999996								
	62	65	0.004079887257056242	0.07548293908379305	0.0014195726773951534	396.0	396.0	396.0	1.0	0.0	1	-29.999999999999996	29.999999999999996								
	62	126	0.008682720494368704	0.3629619935099057	0.05062811813510382	99.0	99.0	99.0	1.0	0.0	1	-29.999999999999996	29.999999999999996								
	63	65	0.1953855675995711	1.5872323343240813	0.0047130475454157245	15.0	15.0	15.0	1.0	0.0	1	-29.999999999999996	29.999999999999996								
	64	65	0.004955393944402814	0.056591322008100575	0.9078141137931718	512.0	512.0	512.0	0	0	1	-29.999999999999996	29.999999999999996								
	64	66	0.0032631732873428477	0.03767476433198079	0.6600750829665454	684.0	684.0	684.0	0	0	1	-29.999999999999996	29.999999999999996								
	65	126	0.0030454974549740553	0.15088307847392335	0.0014221195817834629	191.0	191.0	191.0	0	0	1	-29.999999999999996	29.999999999999996								
	66	11	9.157049211669356e-6	0.011790609044431957	0.01562900091427325	500.0	2486.0	2486.0	1.0	0.0	1	-29.999999999999996	29.999999999999996								
	67	68	0.01901099462245837	0.09978237817661133	0.0014269072852007678	220.00000000000003	220.00000000000003	220.00000000000003	0	0	1	-29.999999999999996	29.999999999999996								
	68	69	0.0068299262518966	0.03545532011538326	0.001425435866582718	218.00000000000003	218.00000000000003	218.00000000000003	0	0	1	-29.999999999999996	29.999999999999996								
	69	77	0.009806445737438425	0.0374245583529289	0.0014229919924013384	189.0	189.0	189.0	0	0	1	-29.999999999999996	29.999999999999996								
	69	78	0.011407799030676239	0.043429673537669515	0.04379381917907213	180.0	188.0	188.0	0	0	1	-29.999999999999996	29.999999999999996								
	69	79	0.005099476487540125	0.0424626915287502	0.11476342397800535	273.0	273.0	273.0	0	0	1	-29.999999999999996	29.999999999999996								
	70	73	2.5570483349494968e-5	0.01970278866367727	0.007782652592447182	495.0	1489.0	1489.0	1.0398	0.0	1	-29.999999999999996	29.999999999999996								
	70	149	0.00019994415835487687	0.0017994974241393085	0.0014197854596792675	284.0	284.0	284.0	0	0	1	-29.999999999999996	29.999999999999996								
	70	149	0.0002000370289776319	0.0018003332597431193	0.016764965211370813	284.0	284.0	284.0	0	0	1	-29.999999999999996	29.999999999999996								
	71	85	0.030064005689528498	0.14893780534535628	0.0711715042603773	191.0	191.0	191.0	0	0	1	-29.999999999999996	29.999999999999996								
	71	150	0.019445905035736583	0.09623793328954838	0.017262089033524462	213.0	213.0	213.0	0	0	1	-29.999999999999996	29.999999999999996								
	72	113	0.0021977764625863037	0.01298686093247195	0.0014235441044467476	231.99999999999997	231.99999999999997	231.99999999999997	0	0	1	-29.999999999999996	29.999999999999996								
	72	132	0.0027843598933846698	0.016706159442587278	0.0014188314423254332	234.0	234.0	234.0	0	0	1	-29.999999999999996	29.999999999999996								
	72	152	0.04551329669858199	0.2127889220340322	0.0014350841963655075	160.0	160.0	160.0	0	0	1	-29.999999999999996	29.999999999999996								
	74	119	0.0030928919667800345	0.030928994915494404	0.5982028976825742	639.0	639.0	639.0	0	0	1	-29.999999999999996	29.999999999999996								
	75	128	0.0007983117963503047	0.008681641910536364	0.2426327592159799	665.0	665.0	665.0	0	0	1	-29.999999999999996	29.999999999999996								
	75	130	0.00037644919667751266	0.022774780518986435	0.001418932164125929	578.0	1212.0	1212.0	1.0249	0.0	1	-29.999999999999996	29.999999999999996								
	78	79	0.005133685986292622	0.033821885170966265	0.0014187138088050597	245.00000000000003	245.00000000000003	245.00000000000003	0	0	1	-29.999999999999996	29.999999999999996								
	78	80	0.02429263983519647	0.09259078845938443	0.009445696561907245	180.0	189.0	189.0	0	0	1	-29.999999999999996	29.999999999999996								
	79	74	2.133852313346895e-5	0.017998672296365193	0.03565305187988864	500.0	1630.0	1630.0	1.0248	0.0	1	-29.999999999999996	29.999999999999996								
	82	83	0.005329294957003641	0.02503762564963588	0.0014194074724175757	208.0	208.0	208.0	0	0	1	-29.999999999999996	29.999999999999996								
	84	93	0.012206466679297473	0.08065643577035218	0.0784313360478979	245.00000000000003	245.00000000000003	245.00000000000003	0	0	1	-29.999999999999996	29.999999999999996								
	85	86	0.021054856830256288	0.10437645780310789	0.2582500132999889	214.0	214.0	214.0	0	0	1	-29.999999999999996	29.999999999999996								
	86	87	0.028635730725882488	0.11454310548182664	0.055233554717046884	254.99999999999997	254.99999999999997	254.99999999999997	1.0	0.0	1	-29.999999999999996	29.999999999999996								
	86	88	0.04313076128114231	0.22349447158853705	0.16789737257711518	127.0	127.0	127.0	1.0	0.0	1	-29.999999999999996	29.999999999999996								
	88	96	0.07832534517217847	0.2646160945257845	0.0567016608821502	48.0	112.99999999999999	112.99999999999999	1.0	0.0	1	-29.999999999999996	29.999999999999996								
	88	106	0.007915234027366661	0.04689016353502517	0.0696834505892455	173.0	619.0	619.0	1.0	0.0	1	-29.999999999999996	29.999999999999996								
	89	86	0.00021324967265910294	0.056898357862944594	0.04993907040777497	90.0	515.0	515.0	1.0252	0.0	1	-29.999999999999996	29.999999999999996								
	89	90	0.07042406921780463	0.13676546319378063	0.40754403462115785	69.0	98.0	98.0	0	0	1	-29.999999999999996	29.999999999999996								
	90	96	0.19398038088253525	0.3791022866126484	0.030824979309543473	73.0	73.0	73.0	0	0	1	-29.999999999999996	29.999999999999996								
	91	92	0.01528840011013702	0.08026407398331514	0.015258404985300676	220.00000000000003	220.00000000000003	220.00000000000003	0	0	1	-29.999999999999996	29.999999999999996								
	91	93	0.01418385333050499	0.08877361308321895	0.07456030699690754	239.0	239.0	239.0	0	0	1	-29.999999999999996	29.999999999999996								
	91	94	0.014188538338669999	0.09364450749565735	0.04417946076097765	245.00000000000003	245.00000000000003	245.00000000000003	0	0	1	-29.999999999999996	29.999999999999996								
	92	102	0.015016280931432459	0.061066210616973454	0.07371886445614219	194.0	194.0	194.0	0	0	1	-29.999999999999996	29.999999999999996								
	93	42	4.478560837788933e-5	0.026075172756691637	0.008228055964733144	400.0	1129.0	1129.0	1.0248	0.0	1	-29.999999999999996	29.999999999999996								
	93	108	1.5625945787610376e-5	0.015402156387351295	0.0014189982715079948	600.0	1905.0	1905.0	1.0503	0.0	1	-29.999999999999996	29.999999999999996								
	94	103	0.02283457595025093	0.13409066568093175	0.057332718720642786	217.0	217.0	217.0	0	0	1	-29.999999999999996	29.999999999999996								
	94	107	0.06074167147792195	0.18740856466336248	0.07395582338480064	148.0	148.0	148.0	0	0	1	-29.999999999999996	29.999999999999996								
	94	109	8.056895823617126e-5	0.034973678866237264	0.0014186041305261185	300.0	839.0	839.0	1.0248	0.0	1	-29.999999999999996	29.999999999999996								
	95	91	0.005441414715571885	0.046151253688595816	0.0014300142766502544	250.0	637.0	637.0	1.02	0.0	1	-29.999999999999996	29.999999999999996								
	95	96	0.08756961162513362	0.21339165937964405	0.001418655846157605	109.00000000000001	109.00000000000001	109.00000000000001	0	0	1	-29.999999999999996	29.999999999999996								
	95	97	0.12491927513742734	0.2722246714929532	0.027042543656604294	57.99999999999999	95.0	95.0	0	0	1	-29.999999999999996	29.999999999999996								
	95	98	0.007108887340419541	0.04305386734980379	0.018196086044422344	168.0	168.0	168.0	0	0	1	-29.999999999999996	29.999999999999996								
	95	99	0.0003090436914063576	0.06849582748299488	0.057561680588523706	150.0	429.0	429.0	1.0296	0.0	1	-29.999999999999996	29.999999999999996								
	96	100	0.06971942128357374	0.16267732667987797	0.1340028494680279	69.0	107.0	107.0	0	0	1	-29.999999999999996	29.999999999999996								
	96	101	0.0007027633578008407	0.10328876826168812	0.18532895717488906	96.0	285.0	285.0	1.0296	0.0	1	-29.999999999999996	29.999999999999996								
	97	44	0.005030967895869188	0.09933702950832247	0.0014188510280197118	84.0	291.0	291.0	1.0252	0.0	1	-29.999999999999996	29.999999999999996								
	98	93	0.0006093265673978882	0.021732639779048716	0.0014203365237773246	504.0	1371.0	1371.0	1.0252	0.0	1	-29.999999999999996	29.999999999999996								
	98	105	0.15368127528003597	0.3031939869107027	0.0014517400898829392	69.0	90.0	90.0	0	0	1	-29.999999999999996	29.999999999999996								
	100	104	0.06232656104105524	0.14576442451889485	0.0014205057086259844	69.0	107.0	107.0	0	0	1	-29.999999999999996	29.999999999999996								
	103	123	0.15381092332155266	0.6367235717667012	0.0394651734743657	38.0	38.0	38.0	0	0	1	-29.999999999999996	29.999999999999996								
	103	124	0.0001811348380844039	0.015124861835267142	0.044005169533367174	1757.0	1757.0	1757.0	1.0	0.0	1	-29.999999999999996	29.999999999999996								
	103	125	0.026298911559550425	0.1858772241027319	0.0014190484918536733	148.0	148.0	148.0	1.0	0.0	1	-29.999999999999996	29.999999999999996								
	104	34	0.008023550302853441	0.06388774296812465	0.0014316213665942303	106.0	457.0	457.0	1.0	0.0	1	-29.999999999999996	29.999999999999996								
	105	38	0.0008913386039694969	0.11632343137791686	0.05512922246404721	45.0	252.99999999999997	252.99999999999997	1.0252	0.0	1	-29.999999999999996	29.999999999999996								
	106	107	0.019582164976597382	0.06104453448847516	0.0806931682879143	171.0	171.0	171.0	0	0	1	-29.999999999999996	29.999999999999996								
	107	122	0.013022645392368538	0.06220912656341526	0.001424101990148776	210.0	210.0	210.0	0	0	1	-29.999999999999996	29.999999999999996								
	109	119	0.005988287773833861	0.05758778874637931	0.9255122944021646	505.99999999999994	505.99999999999994	505.99999999999994	0	0	1	-29.999999999999996	29.999999999999996								
	109	124	0.0019962369784016156	0.022158210680617258	0.37386036616580676	671.0	671.0	671.0	0	0	1	-29.999999999999996	29.999999999999996								
	109	125	0.007013605460726797	0.06211946147773833	1.0789086667084353	471.0	471.0	471.0	0	0	1	-29.999999999999996	29.999999999999996								
	110	111	0.023499512522750732	0.1011499321828024	0.09809671216928346	180.0	200.0	200.0	0	0	1	-29.999999999999996	29.999999999999996								
	110	112	2.2558658578165123e-5	0.018506100190787786	0.021952759244069923	500.0	1586.0	1586.0	1.0	0.0	1	-29.999999999999996	29.999999999999996								
	110	114	0.0003885278696944906	0.07680051409862232	0.03379119921197812	150.0	382.0	382.0	1.0398	0.0	1	-29.999999999999996	29.999999999999996								
	110	134	0.003196261630955671	0.02557008864792915	0.0615214599701497	268.0	268.0	268.0	0	0	1	-29.999999999999996	29.999999999999996								
	110	141	0.02108747669618025	0.06517066895637062	0.10479957856743734	171.0	171.0	171.0	0	0	1	-29.999999999999996	29.999999999999996								
	111	115	0.04706974361608497	0.19783540712317552	0.06679106222881336	129.0	129.0	129.0	0	0	1	-29.999999999999996	29.999999999999996								
	112	120	0.000499257163653634	0.00439346302359374	0.0501538148907608	601.0	601.0	601.0	0	0	1	-29.999999999999996	29.999999999999996								
	112	121	2.3783465296190685e-5	0.019001847225369725	0.032775580732052334	720.0	1544.0	1544.0	1.0499	0.0	1	-29.999999999999996	29.999999999999996								
	113	132	0.04667267412983045	0.2960004265993786	0.0014190060178972484	100.0	100.0	100.0	0	0	1	-29.999999999999996	29.999999999999996								
	113	134	0.0008004019643928934	0.0072036176657798625	0.0014186612580851937	284.0	284.0	284.0	0	0	1	-29.999999999999996	29.999999999999996								
	115	117	0.0019023926869895203	0.015419394720274452	0.0014226125972825864	270.0	270.0	270.0	0	0	1	-29.999999999999996	29.999999999999996								
	116	117	0.004683361094955114	0.03814988595878193	0.08525048762300261	271.0	271.0	271.0	0	0	1	-29.999999999999996	29.999999999999996								
	116	119	5.331776096245694e-6	0.008996932692404189	0.0014187758403108948	1000.0	3260.0	3260.0	1.0248	0.0	1	-29.999999999999996	29.999999999999996								
	116	147	0.003520878761939624	0.02877061590896132	0.001419390969177203	271.0	271.0	271.0	0	0	1	-29.999999999999996	29.999999999999996								
	117	147	0.002207346961961456	0.01755844096148065	0.15141112097368936	268.0	268.0	268.0	0	0	1	-29.999999999999996	29.999999999999996								
	120	14	0.000297234930530072	0.018626716951664464	0.0023317752903109323	500.0	1561.0	1561.0	0.9751	0.0	1	-29.999999999999996	29.999999999999996								
	120	128	0.00039926308500307035	0.005090604363770401	0.254047433858658	717.0	717.0	717.0	0	0	1	-29.999999999999996	29.999999999999996								
	120	129	0.00029998800497589296	0.0037998480629660544	0.0722866273456231	715.0	715.0	715.0	0	0	1	-29.999999999999996	29.999999999999996								
	122	123	0.01729175629117614	0.08250672446178693	0.07220013522537444	210.0	210.0	210.0	0	0	1	-29.999999999999996	29.999999999999996								
	123	125	0.04587740617162466	0.2653776831052417	0.038011894026492084	119.0	119.0	119.0	1.0	0.0	1	-29.999999999999996	29.999999999999996								
	124	125	0.01129255384936049	0.15839125677502996	0.0014189572369242545	185.0	185.0	185.0	0	0	1	-29.999999999999996	29.999999999999996								
	124	126	0.08306264976143733	1.1198485628723063	0.06080934901145253	36.0	36.0	36.0	0	0	1	-29.999999999999996	29.999999999999996								
	125	126	0.013824251846681644	0.4073011147870379	0.0014186488835838083	50.0	50.0	50.0	0	0	1	-29.999999999999996	29.999999999999996								
	126	127	0.09693698949584409	0.7787627357539979	0.0014200247464683873	42.0	42.0	42.0	0	0	1	-29.999999999999996	29.999999999999996								
	128	72	0.00043695457741369783	0.01966297435421967	0.001419193474081092	500.0	1630.0	1630.0	1.0	0.0	1	-29.999999999999996	29.999999999999996								
	129	132	0.00038303238484092595	0.01896009547909532	0.0014832341124592396	500.0	1482.0	1482.0	1.0	0.0	1	-29.999999999999996	29.999999999999996								
	133	134	0.00011067316314666168	0.04099002417087965	0.0014185437394027157	160.0	716.0	716.0	1.0249	0.0	1	-29.999999999999996	29.999999999999996								
	133	135	0.01083843772578648	0.025753719004322363	0.0014192504160276977	44.0	65.0	65.0	0	0	1	-29.999999999999996	29.999999999999996								
	133	136	0.03932973356163826	0.09983701780484266	0.0077619690279569055	39.0	67.0	67.0	0	0	1	-29.999999999999996	29.999999999999996								
	133	137	0.01347849089124349	0.05069521991691608	0.1393235280732743	60.0	81.0	81.0	0	0	1	-29.999999999999996	29.999999999999996								
	135	138	0.04608434442815424	0.11689203392683117	0.0014221636479748543	39.0	67.0	67.0	0	0	1	-29.999999999999996	29.999999999999996								
	136	139	0.025745972667310355	0.06436493092197826	0.0049268511000064436	39.0	66.0	66.0	0	0	1	-29.999999999999996	29.999999999999996								
	137	140	0.004098773979450029	0.015595335136828734	0.018273681736328914	60.0	81.0	81.0	0	0	1	-29.999999999999996	29.999999999999996								
	138	110	0.00011082307418978552	0.04101777585343997	0.04498536162190635	160.0	716.0	716.0	1.0	0.0	1	-29.999999999999996	29.999999999999996								
	138	139	0.026008161153241758	0.06502040159510272	0.02735651110709377	39.0	66.0	66.0	0	0	1	-29.999999999999996	29.999999999999996								
	138	140	0.025106159388386444	0.09412308031079077	0.043783713604627586	60.0	80.0	80.0	0	0	1	-29.999999999999996	29.999999999999996								
	138	145	0.08965624676853627	0.22710472779125448	0.001419899954052462	39.0	67.0	67.0	0	0	1	-29.999999999999996	29.999999999999996								
	142	51	0.0019776483956729122	0.17326260825492582	0.001419516195179234	83.0	170.0	170.0	1.07	0.0	1	-29.999999999999996	29.999999999999996								
	142	143	0.15805192504150167	0.39153518115195063	0.0036004882654808567	44.0	66.0	66.0	0	0	1	-29.999999999999996	29.999999999999996								
	142	146	0.15868107920375027	0.3786584151024581	0.0014198219660729908	44.0	65.0	65.0	0	0	1	-29.999999999999996	29.999999999999996								
	143	144	0.09251439603589516	0.23173608513857777	0.0014205237177030024	44.0	66.0	66.0	0	0	1	-29.999999999999996	29.999999999999996								
	144	141	0.0004432964865599213	0.08203504109297792	0.0260691205297072	80.0	358.0	358.0	1.0249	0.0	1	-29.999999999999996	29.999999999999996								
	144	145	0.08465120311423203	0.21020191897568336	0.052138855645272146	39.0	66.0	66.0	0	0	1	-29.999999999999996	29.999999999999996								
	144	146	0.06911487167947163	0.2953676430162044	0.014646864986295869	60.0	86.0	86.0	0	0	1	-29.999999999999996	29.999999999999996								
	148	116	0.00011100661575201448	0.04105172770478065	0.0014358678809725208	160.0	716.0	716.0	1.0	0.0	1	-29.999999999999996	29.999999999999996								
	149	26	9.801103491044141e-5	0.03857400049673124	0.001418767626548937	300.0	760.0	760.0	1.0	0.0	1	-29.999999999999996	29.999999999999996								
	149	26	9.806361900640364e-5	0.03858434674936254	0.04995385725279001	300.0	760.0	760.0	1.0	0.0	1	-29.999999999999996	29.999999999999996								
	149	150	0.001004036427335587	0.008534309693047326	0.0014197128863449712	276.0	276.0	276.0	0	0	1	-29.999999999999996	29.999999999999996								
	149	151	0.0039221748937437505	0.026348957853917155	0.006708951571305942	247.00000000000003	247.00000000000003	247.00000000000003	0	0	1	-29.999999999999996	29.999999999999996								
	149	152	0.0249292548177481	0.11508836725307676	0.06275883314133233	206.99999999999997	206.99999999999997	206.99999999999997	0	0	1	-29.999999999999996	29.999999999999996								
	151	161	0.0020977846213475317	0.013785440947262877	0.0043389298721327445	244.0	244.0	244.0	0	0	1	-29.999999999999996	29.999999999999996								
	153	70	0.0005480141948251909	0.09121088332981409	0.00141990675614707	93.0	321.0	321.0	1.0	0.0	1	-29.999999999999996	29.999999999999996								
	153	70	0.0005567740362979547	0.09193695590760308	0.0014190469346845934	93.0	321.0	321.0	1.0	0.0	1	-29.999999999999996	29.999999999999996								
	153	154	0.07207317995555995	0.288475388972515	0.0014544302746726902	50.0	83.0	83.0	0	0	1	-29.999999999999996	29.999999999999996								
	153	155	0.04378051026916244	0.18898351073824848	0.11268929503453372	66.0	86.0	86.0	0	0	1	-29.999999999999996	29.999999999999996								
	154	156	0.015562788785731372	0.038053538986391085	0.0014194590086337082	50.0	66.0	66.0	0	0	1	-29.999999999999996	29.999999999999996								
	154	160	0.010121912087976744	0.04257164265871743	0.0017288353195478617	50.0	85.0	85.0	0	0	1	-29.999999999999996	29.999999999999996								
	155	156	0.01759863842203705	0.08219402817897196	0.0014212426234855244	66.0	89.0	89.0	0	0	1	-29.999999999999996	29.999999999999996								
	156	157	0.052552232039281783	0.12622390807160266	0.0014192463434437432	33.0	65.0	65.0	0	0	1	-29.999999999999996	29.999999999999996								
	157	55	0.00044844957326368545	0.08251045643326743	0.003030805821072094	150.0	355.0	355.0	1.0	0.0	1	-29.999999999999996	29.999999999999996								
	157	158	0.04635842655830729	0.13310555377641906	0.0014187994116599497	50.0	71.0	71.0	0	0	1	-29.999999999999996	29.999999999999996								
	158	159	0.033878646853657296	0.0663581639583801	0.025414809440501063	50.0	59.0	59.0	0	0	1	-29.999999999999996	29.999999999999996								
	159	160	0.018652927162131492	0.0796189439240411	0.03494637464538613	50.0	86.0	86.0	0	0	1	-29.999999999999996	29.999999999999996								
	161	162	0.0021932936440488488	0.010268601894093302	0.010765492640634429	208.0	208.0	208.0	0	0	1	-29.999999999999996	29.999999999999996								
];

%%-----  OPF Data  -----%%
%% cost data
%    1    startup    shutdown    n    x1    y1    ...    xn    yn
%    2    startup    shutdown    n    c(n-1)    ...    c0
mpc.gencost = [
	2	0.0	0.0	2	23.532556	0.0
	2	0.0	0.0	2	30.409326	0.0
	2	0.0	0.0	2	19.040386	0.0
	2	0.0	0.0	2	19.686835	0.0
	2	0.0	0.0	2	38.489977	0.0
	2	0.0	0.0	2	6.111723	0.0
	2	0.0	0.0	2	22.934184000000002	0.0
	2	0.0	0.0	2	29.747826	0.0
	2	0.0	0.0	2	20.377006	0.0
	2	0.0	0.0	2	7.373082000000001	0.0
	2	0.0	0.0	2	15.234482	0.0
	2	0.0	0.0	2	11.354352000000002	0.0
];

